V1 1 0 PULSE(0 5 0 10n 10n 50n 100n)
R1 1 2 50
C1 2 0 25p g2
R2 2 3 160
C2 3 0 2.226p g2
L1 3 4 231.6n
C3 4 0 2.226p g2
R3 4 0 100k
C4 4 0 5p g2
.TRAN 100n 0.0005n
.END
