I1 0 1 RAMP(0)
R1 1 0 1
L1 1 2 4
V2 2 3 0
R2 3 0 8
C1 1 0 .25 g2
.TRAN 3 10u
.END