V1 1 0 PULSE(0 10 0 2 2 20 20)
R1 1 2 2
R2 2 3 2
V2 3 0 0
F1 0 2 V2 1
C1 2 0 1 g2
.TRAN 20 100u
.PLOT C1
.END